docs/Sample/DS_ONS_102025_RV2D11/sab19h.pwf
TITU
ONS PDPM Outubro 2025 - SABADO NOITE                                            
DAGR
(AG (         D E S C R I C A O        )
  6 SUBMERCADOS DO SIN                   
(ID O (       Nome de Identificacao      )
  1   SUDESTE/CENTRO-OESTE                 
  2   SUL                                  
  3   NORDESTE                             
  4   NORTE                                
FAGR
99999
DOPC IMPR
(Op) E (Op) E (Op) E (Op) E (Op) E (Op) E (Op) E (Op) E (Op) E (Op) E
STEP L NEWT L RCVG L RMON L FILE L SUBS L CONT L NOVO L CELO L MFCT L
AREG L STPO L VLCR L PMIN L CPHS L INMN L IANG L UNPG L
99999
DCTE
(Mn) ( Val) (Mn) ( Val) (Mn) ( Val) (Mn) ( Val) (Mn) ( Val) (Mn) ( Val) 
BASE   100. DASE   100. TEPA    .01 EXST    .04 TETP     5. TBPA     5.
TLPP     1. TEPR    .01 QLST    .04 TLPR    .01 TLPQ     2. TSBZ    .01
TSBA     5. ASTP    .05 VSTP     5. TLVC    .05 TLTC    .01 TSFR  .1E-7
ZMAX   500. TLPV     .5 VDVM   200. VDVN    40. TUDC   .001 TADC    .01
PGER    30. TPST    .02 VFLD    70. ZMIN  .0001 HIST    470 LFIT     10
ACIT    100 LFCV      1 DCIT     10 VSIT     10 LPIT     50 LFLP     10
PDIT     10 LCRT    200 LPRT     60 CSTP     5. ASDC     1.
ICIT     50 DMAX      5 FDIV     2. ICMN    .05 VART     5. TSTP     32
ICMV     .5 APAS    90. CPAR    70. VAVT     2. VAVF     5. VMVF    15.
VPVT     2. VPVF     5. VPMF    10. VSVF    20. VINF     1. VSUP     1.
TLSI     0. NDIR    20. STTR     5. TRPT   100. STIR     1. BFPO     1.
LFPO     .1 TLMT     0. TLMF     0. TLMG     0. PARS    10.            
99999
DBAR
(Num)OETGb(   nome   )Gl( V)( A)( Pg)( Qg)( Qn)( Qm)(Bc  )( Pl)( Ql)( Sh)Are(Vf)M(1)(2)(3)(4)(5)(6)(7)(8)(9)(10
   10 L1 VANGRA1UNE001 5 991-228     -113.   0.   0.                     2211000                  1                
   11 L1 VANGRA2UNE001 5 994-228     -204.   0.   0.                     2211000                  1                
   12 L1 VLCBARRUHE006 5 975-229     -648.   0.   0.                     2041000                  1                
   13 L1 TLCBARRSIN000 51012-233     -42.1   0.   0.                     2041000                  1                
   14 L1 VFUNIL-UHE003 5 977-241     -108.   0.   0.                     2251000                  1                
   16 L1 VFURNASUHE008 5 980-235     -641.   0.   0.                     1891000                  1                
   17 L1 TFURNASSIN000 51009-241     -44.4   0.   0.                     1891000                  1                
   18 L1 VITUMBIUHE006 5 969-226     -858.   0.   0.                     1881000                  1                
   19 L1 TITUMBISIN000 51002-233     -65.3   0.   0.                     1881000                  1                
   20 L1 VMARIMBUHE008 51028-205     -630.   0.   0.                     1881000                  1                
   21 L1 VMANSO-UHE002 5 980-254     -38.6   0.   0.                     1371000                  1                
   22 L1 VM.MORAUHE006 51008-228     -86.2   0.   0.                     1891000                  1                
   23 L1 TCBRAV-SIN000 51012-267     -43.1   0.   0.                     1491000                  1                
   24 L1 VM.MORBUHE004 5 988-229      -8.2   0.   0.                     2081000                  1                
   28 L1 VPCOLOMUHE004 51015-221     -33.3   0.   0.                     2081000                  1                
   30 L1 VSCRU19UTE000 51000-249     -65.3   0.   0.                     2241000                  1                
   31 L1 VSCRU31UT3001 51000-249     -20.5   0.   0.                     2241000                  1                
   32 L1 VSCRU16UTE002 51006-243     -39.1   0.   0.                     2241000                  1                
   35 L1 VCORUMBUHE002 5 990-235     -96.1   0.   0.                     1481000                  1                
   36 L1 VS.MESAUHE003 5 974-277     -788.   0.   0.                     1471000                  1                
   37 L1 TS.MESASIN000 51009-280     -131.   0.   0.                     1471000                  1                
   38 L1 NGRAJA2SIN001 51011-250     -87.2   0.   0.                     2211000                  1                
   41 L1 TVITOR2SIN001 51009-299     -23.2   0.   0.                     2341000                  1                
   44 L1 NGRAJA1SIN001 51011-250     -88.2   0.   0.                     2211000                  1                
   47 L1 TVITOR1SIN001 51009-299     -24.8   0.   0.                     2341000                  1                
   48 L1 QIBIUNASIN004 5 981-227     -127.   0.   0.    86               2041000                  1                
   50 L1 QTPRETOSIN001 51008-227     -119.   0.   0.                     2011000                  1                
   52 L  EGNA-I--RJ345 51044-285                                         2221000                  1                
   53 L1 QGNA1G-UTE003 5 989-285     -29.2   0.   0.                     2221000                  1                
   54 L1 QGNA1V-UTE001 5 987-285     -24.5   0.   0.                     2221000                  1                
   56 L  IIVAIP3-PR069 61041-212                                         2011000                  1                
   57 L  IIVAIP2-PR069 61037-212                                         201 960                  1                
   58 L  UIVAIP2-PR000 61104-212                                         201 960                  1                
   59 L  UIVAIP3-PR000 61105-212                                         2011000                  1                
   60 L  AF.IGUA-PR765 11067-206                                         2011000                  1                
   61 L  CFOZ60--PR500111104-204                                         2401000                  1                
   62 L  AIV-FZ1CAP765 11116-218                                         2011000                  1                
   63 L  AIV-FZ2CAP765 11116-218                                         2011000                  1                
   64 L  AIV-FZ3CAP765 11113-218                                         2011034                  1                
   65 L  AIVAIPO-PR765 11119-213                                         2011000                  1                
   66 L  BIVAIPA-PR525 21118-212                                         1011000                  2                
   67 L  IIVAIP1-PR069 61037-212                            .24   0.     2011000                  1                
   68 L  UIVAIP1-PR000 61105-212                                         2011000                  1                
   69 L  AIV-IT1CAP765 11100-207                                         2011000                  1                
   70 L  AIV-IT2CAP765 11100-207                                         2011000                  1                
   71 L  AIV-IT3CAP765 11100-208                                         2011014                  1                
   72 L  AITABER-SP765 11122-218                                         2011000                  1                
   73 L  AIT-TP1CAP765 11088-212                                         2011000                  1                
   74 L  AIT-TP2CAP765 11088-211                                         2011000                  1                
   75 L  AIT-TP3CAP765 11085-211                                         2011000                  1                
   76 L  ATPRETO-SP765 11061-224                                         2011000                  1                
   77 L  CTPRETO-SP500 31047-227                                         2021000                  1                
   78 L  ETPRETO-SP345 51003-227                                         2041000                  1                
   79 L  ITPRETO-SP069 6 999-227                                         2011000                  1                
   80 L  UTPRET3-SP000 61063-227                                         2011000                  1                
   81 L  UTPRET4-SP000 61034-227                                         2011000                  1                
   82 L  ETPRET2-SP345 51000-227                                         2041000                  1                
   84 L  GRESEN2-RJ138 51008-242                                         2251000                  1                
   85 L  CFOZ50--PR500 31083-.14                            60.   0.     2411000                  1                
   86 L1 EIBIUNA-SP345 51030-227     -3256   0.   0.                     2041000                  1                
   87 L  CRESEND-RJ500 31098-239                                         2211000                  1                
   90 L  EVIANA--ES345 51056-298                                         2341010                  1                
   91 L  NVIANT1-ES013 61061-301                                         2341010                  1                
   92 L  CSB-SM1CAP500 31093-267                                         1471000                  1                
   93 L  CSB-SM2CAP500 31111-268                                         1471000                  1                
   94 L  CSB-SM3CAP500 31111-268                                         1471000                  1                
   95 L  NVIANT2-ES013 61061-301                                         2341010                  1                
   96 L  NVIANT3-ES013 61061-301                                         2341000                  1                
   99 L  CAS-AR1-SP500 31124-200                                         2021000                  1                
  100 L  CMARIMB-MG500 31072-210                                         1881000                  1                
  101 L  CARARAQ-SP500 31085-207                                         2021000                  1                
  102 L  CP.CALD-MG500 31098-223                                         1881000                  1                
  103 L  CCAMPIN-SP500 31109-222                                         2021000                  1                
  104 L  CC.PAUL-SP500 31113-234                                         2021000                  1                
  105 L  CANGRA--RJ500 31089-236                           117.   0.     2211000                  1                
  106 L  CADRIAN-RJ500 31080-245                                         2211000                  1                
  107 L  CGRAJAU-RJ500 31083-247                                         2211000                  1                
  108 L  CS.JOSE-RJ500 31076-246                                         2211000                  1                
  110 L  UGR1T52-RJ000 61037-250                                         2211000                  1                
  112 L  CBA-IB1-PR500 31189-222                                         1011000                  2                
  113 L  CBA-IB2-PR500 31189-222                                         1011000                  2                
  114 L  CBA-IT1-PR500 31189-222                                         1011000                  2                
  115 L  CBA-IT1CAP500 31144-221                                         1011000                  2                
  116 L  GIMBTAP-RJ138 51069-260                                         2261000                  1                
  117 L  CCAMPO2-RJ500 31103-273                                         2211000                  1                
  118 L  UBANDT4-GO000 61047-260                                         1481000                  1                
  119 L  NBANDT4-GO013 61047-260                                         1481000                  1                
  120 L  EP.CALD-MG345 51005-231                                         1891000                  1                
  121 L  UPCAT51-MG000 61043-233                                         1881000                  1                
  122 L  CIBIUNA-SP500 31076-225                                         2021000                  1                
  123 L  ECAMPIN-SP345 5 991-227                                         2041000                  1                
  124 L  UCAMP51-SP000 61070-228                                         2021000                  1                
  125 L  CIB-BA1CAP500 31034-228                                         2021000                  1                
  126 L  EGUARUL-SP345 51050-230                                         2041000                  1                
  127 L  EMO-RL1-SP345 51069-227                                         2041000                  1                
  128 L  EMO-RL2-SP345 51069-227                                         2041015                  1                
  129 L  EMOGI---SP345 51065-229                                         2041000                  1                
  130 L  CIB-BA2CAP500 31034-228                                         2021000                  1                
  131 L  EM.MORA-MG345 51039-234                                         1891000                  1                
  133 L  UADRT1A-RJ000 61058-258                                         2221000                  1                
  134 L  ELCBARR-SP345 51033-233                                         2041000                  1                
  135 L  UJACT1A-RJ000 61015-253                                         2221000                  1                
  136 L  EFURNAS-MG345 51042-241                                         1891000                  1                
  137 L  UJACT2A-RJ000 61016-253                                         2221000                  1                
  138 L  EITUTIN-MG345 51062-263                                         1891000                  1                
  139 L  UADRT51-RJ000 61045-253                                         2211014                  1                
  140 L  EADRIAN-RJ345 51022-254                                         2221000                  1                
  141 L  UADRT53-RJ000 61057-256                                         2211000                  1                
  142 L  UADRT55-RJ000 61055-255                                         2211060                  1                
  143 L  UADRT2B-RJ000 61059-258                                         2221030                  1                
  144 L  EJACARE-RJ345 51038-252                                         2221000                  1                
  145 L  UADRT1B-RJ000 61059-258                                         2221000                  1                
  146 L  UADRT2A-RJ000 61059-258                                         2221000                  1                
  147 L  ECAMPOS-RJ345 51046-285                                         2221000                  1                
  148 L  UCAMPO1-RJ000 61040-286                                         2221000                  1                
  149 L  EVITORI-ES345 51052-299                                         2341000                  1                
  150 L  UVITAT1-ES000 61054-304                                         2341000                  1                
  152 L  UVITAT2-ES000 61054-304                                         2341000                  1                
  153 L  UVITAT3-ES000 61054-305                                         2341000                  1                
  154 L  NVITAT2-ES013 61054-304                                         2341000                  1                
  155 L  NVITAT3-ES013 61054-305                                         2341000                  1                
  156 D  NVITAT4-ES013 6 997  0.                                         2341000                  1                
  158 D  UVITAT4-ES000 6 997  0.                                         2341000                  1                
  159 L  NJA-R30-RJ013 61016-253                                         2221000                  1                
  160 L  NJB-R60-RJ013 6 991-253                                         2221000                  1                
  161 L  FMO-FCE-SP230 5 995-229                                         2051000                  1                
  162 L  UCAMAT1-SP000 61043-228                                         2041000                  1                
  163 L  NCAMPI1-SP013 61012-228                                         2041000                  1                
  164 L  UPCAT02-MG000 61082-232                                         1891000                  1                
  165 L  NP.CAL2-MG013 61017-232                                         1891000                  1                
  166 L  UJACT1B-RJ000 61016-253                                         2221000                  1                
  167 L  NJA-R60-RJ013 61015-253                                         2221000                  1                
  169 L GCSJOSE2-RJ138 51016-252                                         2241000                  1                
  170 L  GP.CALD-MG138 51040-232                                         1961000                  1                
  171 L  GCAMPI1-SP138 51084-229                                         2071000                  1                
  172 L  GIMBARE-RJ138 51033-254                                         2261000                  1                
  173 L GCADRIAN-RJ138 51022-258                                         2261000                  1                
  174 L GCR.LEAO-RJ138 51051-279                                         2281000                  1                
  175 L GCCAMPOS-RJ138 51026-286                                         2291000                  1                
  176 L  UCAMP54-SP000 61066-228                                         2021000                  1                
  177 L  GVITOR1-ES138 51004-304                                         2361000                  1                
  178 L GCGRAJAU-RJ138 51002-250                                         2241000                  1                
  179 L  UGR2T54-RJ000 61037-250                                         2211000                  1                
  180 L GCJACARE-RJ138 51006-253                                         2241000                  1                
  181 L  GANGDEF-RJ138 51002-236                                         2211037                  1                
  182 L  GFUNIL--RJ138 51018-242                                         2251000                  1                
  183 L  GC.PAUL-SP138 51021-237                                         2141000                  1                
  184 L GCS.CRUZ-RJ138 51019-249                                         2241000                  1                
  185 L  GANGRA--RJ138 51041-254                                         2251000                  1                
  186 L  NCAMP54-SP013 61066-228                                         2021000                  1                
  187 L  GM.MORA-MG138 51041-234                                         1951000                  1                
  189 L  UBGERT1-DF000 61153-280                                         1591000                  1                
  190 L  GP.COL--MG138 51025-226                                         2081000                  1                
  192 L  NCAMPO1-RJ013 61040-286                                         2221000                  1                
  194 L  NADRT55-RJ013 6 966-255                                         2211080                  1                
  195 L  NADRT53-RJ013 6 969-256                                         2211000                  1                
  196 L  NCAMP51-SP013 6 981-228                                         2021000                  1                
  197 L  NADRT51-RJ013 61045-253                                         2211014                  1                
  198 L  NPCALAT-MG013 6 883-233                                         1881000                  1                
  199 L  NVITAT1-ES013 61054-304                                         2341000                  1                
  200 L  UUCAMP1-RJ000 61212-289                                         2291000                  1                
  201 L  VRSIL-1UTE000 51212-289                                         2291000                  1                
  202 L  UUCAMP2-RJ000 61214-289                                         2291000                  1                
  203 L  VRSIL-2UTE000 51214-289                                         2291000                  1                
  204 L  NADRT1B-RJ013 61059-258                                         2221000                  1                
  205 L  NADRT2A-RJ013 61059-258                                         2221000                  1                
  206 L  NADRT2B-RJ013 61059-258                                         2221030                  1                
  208 L  NBGERT1-DF013 61153-280                                         1591000                  1                
  209 L  NADRT1A-RJ013 61058-258                                         2221000                  1                
  210 L  CITUMBI-MG500 31078-233                                         1881000                  1                
  211 L  UCAMPO2-RJ000 61041-286                                         2221000                  1                
  212 L  NCAMPO2-RJ013 61041-286                                         2221000                  1                
  213 L  EMARIMB-MG345 51023-218                                         1891000                  1                
  214 L  UMARIMB-MG000 61083-221                                         1881000                  1                
  216 L  EP.COL--MG345 51051-227                                         1891000                  1                
  217 L  EITUMBI-MG345 51052-239                                         1891000                  1                
  218 L  EBANDEI-GO345 51059-259                                         1481000                  1                
  219 L  EB.SUL--DF345 51068-273                                         1581000                  1                
  220 L  ECORUMB-GO345 51059-245                                         1481000                  1                
  221 L  LB.GERA-DF034 51060-279                                         160 991                  1                
  222 L  UBSULT6-DF000 61080-275                                         1581000                  1                
  223 L  UBANDT1-GO000 61047-260                                         1481000                  1                
  224 L  UBANDT2-GO000 61046-260                                         148 987                  1                
  225 L  FITUMBI-MG230 51050-241                                         1901000                  1                
  226 L  FBANDEI-GO230 51075-260                                         1491000                  1                
  227 L  FB.GERA-DF230 51080-275                                         1591000                  1                
  228 L  FB.SUL--DF230 51078-274                                         1591000                  1                
  229 L  FB.ALTO-GO230 51003-290                                         1491000                  1                
  230 L  FS.MESA-GO230 51045-278                                         1491000                  1                
  231 L  FR.VERD-GO230 51091-246                                         1491000                  1                
  232 L  NBSULT6-DF013 61080-275                                         1581000                  1                
  233 L  CSAMAMB-DF500 31117-274                                         1571000                  1                
  234 L  ESAMAMB-DF345 51007-273                                         1581000                  1                
  235 L  CS.MESA-GO500 31093-280                                         1471000                  1                
  236 L  GB.SUL--DF138 51017-278                                         1601000                  1                
  237 L  GSAMAMB-DF138 5 997-276                                         1601000                  1                
  238 L  GR.VERD-GO138 51035-249                                         1531000                  1                
  239 L  GS.MESA-GO138 51105-281                                         1541000                  1                
  240 L  URVERT1-GO000 61066-249                                         1491000                  1                
  241 L  NRVERT1-GO013 61056-249                                         1491000                  1                
...
99999
DLIN
(De )d O d(Pa )NcEPM( R% )( X% )(Mvar)(Tap)(Tmn)(Tmx)(Phs)(Bc  )(Cn)(Ce)Ns(Cq)(1)(2)(3)(4)(5)(6)(7)(8)(9)(10 (U) Uop
   38       17954         3.0195         1.                     200.200.  200.                                 1   1
   44       11052             3.         1.                     200.200.  200.                                 1   1
   50        81 4          2.498         1.                     500.500.  500.                                 1   1
   52       147 1      .16 1.64627.714                          10581539  1539
   52       147 2      .16 1.646 27.71                          10581539  1539
   53        52 1          1.085        .95                     10351242  1449                                 1   1
   54        52 1          2.186        .95                     560.672.  784.                                 1   1
   56        59 3          3.385         1.                     550.550.  550.                                 1   1
   57        58 2          3.606         1.                     550.550.  550.                                 1   1
   60        62 1     .076  1.85 927.8                          41334174  4174
   60        63 2     .076  1.85 929.1                          41334174  4174
   60        64 3     .082 1.899 954.5                          36834174  4174
   60     43810 2           .806      .9524                     16501815  1880                                 1   1
   60     43862 1           .743      .9524                     16501815  1792                                 1   1
   60     43899 3            .74      .9524                     16501729  1792                                 1   1
   60     43915 4           .746      .9524                     15721815  1880                                 1   1
   60     43921 5           .731      .9524                     15721980  2200                                 1   1
   61     43421 1     .116 1.999 245.8                          29103624  3623
   61     43422 2     .116 1.999 245.8                          29103624  3623
   61     43810 2          -.164         1.                     16501815  1880                                 1   1
   61     43862 1          -.121         1.                     16501815  1792                                 1   1
   61     43899 3          -.117         1.                     16501729  1792                                 1   1
   61     43915 4          -.123         1.                     15721815  1880                                 1   1
   61     43921 5          -.114         1.                     15721980  2200                                 1   1
   65        58 2           .823         1.                     16921861  1880                                 1   1
   65        59 3           .773         1.                     16501879  1947                                 1   1
   65        68 1           .843         1.                     16501861  2047                                 1   1
   66        68 1           -.17      1.012 .8381.053        99916501861322047                                 1   1
   67        68 1          3.649         1.                     550.550.  550.                                 1   1
   72        69 1 T   .064  1.53  760.                          41334174  4174
   72        70 2     .063  1.53 755.7                          41334174  4174
   72        71 3     .064  1.54  760.                          41334174  4174
   76        73 1 T   .072  1.75 877.5                          41334174  4174
   76        74 2     .072  1.75  873.                          41334174  4174
   76        75 3 T   .078  1.79 898.2                          41334174  4174
   76        80 3           .697         1.                     16501815  1995                                 1   1
   76        81 4          1.028         1.                     15001650  1650                                 1   1
   76     41512 5           .993         1.                     15001650  1650                                 1   1
   76     41514 6           .983         1.                     15001650  1650                                 1   1
   76     41516 7           .931         1.                     15001800  1800                                 1   1
   76     41518 1           .839         1.                     16501650  1650                                 1   1
   76     41520 2           .817         1.                     16501815  1815                                 1   1
   77        80 3           -.03      1.067  .88 1.16         7716501815321995                                 1   1
   77       104 1 T   .167  2.54 216.6                          18552337  2337
   77       598 1 T   .106 1.441 133.4                          18552252  2252
   77      3383 1     .114 1.712259.62                          27282728  2728
   77     41518 1          -.165      1.067  .88 1.16         7716501650331650                                 1   1
   77     41520 2          -.162      1.067  .88 1.16         7716501815331815                                 1   1
   78        81 4          -.107      1.042 .8591.115         7815001650321650                                 1   1
   78       449 1 T  .0742 .6448 11.34                          11841184  1392
   78       449 2 T  .0742 .6448 11.34                          11841184  1392
   78       464 3 T  .1089  .973 17.07                          912.1103  1103
   78       471 1    .0922 .8014 14.08                          11841392  1392
   78       471 2    .0922 .8014 14.08                          11841392  1392
   78       474 1     .068  .944  21.2                          12801613  1613
   78     41512 5          -.093      1.042 .8591.115         7815001650331650                                 1   1
   78     41820 1     .001  .001                                99999999  9999
   78     41823 1     .001  .001                                99999999  9999
   79        80 3          3.545         1.                     550.550.  550.                                 1   1
   82        86 1 T   .187 2.602  60.1                          12801613  1613
   82       449 3 T    .06   .63 12.84                          13501350  1350
   82       449 4 T    .06   .63 12.84                          13501350  1350
   82     41514 6          -.092      1.026 .8591.115         8215001650331650                                 1   1
   82     41516 7          -.058      1.026 .8591.115         8215001800331800                                 1   1
   82     41821 1     .001  .001                                99999999  9999
   82     41822 1     .001  .001                                99999999  9999
   84      1780 1       .7  1.78  .454                          120.120.  120.
   84      1780 2       .7  1.78  .454                          120.120.  120.
   84     11797 1      .32  .815 .2079                          122.130.  122.
   84     21797 1      .32  .815 .2079                          122.130.  122.
   84     42417 5     .004-1.667         1.                     300.359.  419.                                 1   1
   85      1103 3 T  .0058.10069 10.04                          27283377  3377
   85      1103 4 T .00564.09795  9.69                          27283377  3377
   86        48 1           .725       1.04                     10501050  1050                                 1   1
   86       474 1     .155 2.162  49.5                          12801613  1613
   86       488 1    .09481.4987 41.91                          20202390  2390
   86       488 2    .09481.4987 41.91                          20202390  2390
   86     41522 1           -.25      .9822 .8951.048       -122750.750.33750.                                 1   1
   86     41524 2          -.254      .9822 .8951.048       -122750.750.33750.                                 1   1
   86     41526 3           .236      .9822 .8951.048       -122750.900.331050                                 1   1
   87     42417 5     .121 4.833      1.036   .9  1.1        -84300.359.21419.                                 1   1
   87     42426 1          8.333         1.                     150.180.  180.                                 1   1
   87     42428 2         11.458         1.                     120.144.  144.                                 1   1
   90      2608 1          4.847      1.005                     225.270.  304.                                 1   1
   90      2618 2          4.861      1.005                     225.270.  304.                                 1   1
   90      2628 3           4.65      1.005                     225.270.  304.                                 1   1
   90      3032 1 T   .225 2.468 41.54                          747.747.  747.
   90     42441 4          3.081      1.005                     400.480.  560.                                 1   1
   91      2608 1            9.7         1.                      75. 75.   75.                                 1   1
   95      2618 2          9.773         1.                      75. 75.   75.                                 1   1
   96      2628 3           9.83         1.                      75. 75.   75.                                 1   1
   99       101 1     .198 3.098 317.5                          20002000  2000
   99       556 1     .001  .001       1.05                     99999999  9999                                 1   1
  100        20 1            .79         1.                     16201620  1620                                 1   1
  100       214 9          2.979         1.                     560.717.  717.                                 1   1
  100       535 1 T   .153 2.356 203.8                          17321732  1732
  100      3110 1    .12531.8381 160.4                          19922390  2390
  100      4598 1     .006  .097   7.4                          18552337  2337
  100      4598 2     .006  .086   7.2                          18552337  2337
  100      4598 3    .0064 .0824 7.176                          19922390  2390
  101       102 1     .156  2.46 208.5                          18552337  2337
  101       103 1      .15  2.39 202.6                          18552337  2337
  102       12151          2.911       1.05                     560.717.  717.                                 1   1
  102      1503 1     .129 1.993 167.7                          18552337  2337
  103       12451          2.946       1.05                     560.717.  717.                                 1   1
  103       17654         2.9116       1.05                     560.728.  728.                                 1   1
  103       609 1      .06  .946 76.26                          18552337  2337
  103      6609 1     .024  .368  31.7                          18552337  2337
  103      6609 2     .017  .26738.833                          24773464  3464
  104        87 1     .051  .782  66.5                          18552337  2337
  104       598 1     .075  1.15  98.9                          18552252  2252
  104       609 1     .148 2.347 193.3                          18552337  2337
  104      1503 1     .052  .792  66.5                          18552337  2337
  104      3010 1     .189 3.158 709.6                          24423464  3464
  104      3010 2     .189 3.158 709.6                          24423464  3464
  104      3383 1     .014  .205 30.35                          27282728  2728
  104      9626 1     .098  1.68  252.                          24732598  2598
  104     4166457         4.7375       1.05                     250.263.  270.                                 1   1
  104     4166659         4.9492       1.05                     250.270.  283.                                 1   1
  105        10 1           1.97      1.075                     777.777.  777.                                 1   1
  105        11 1            .95      1.075                     14771477  1477                                 1   1
  105       104 1     .093 1.456 122.5                          18552337  2337
  105      9601 1     .092 1.363 115.3                          18552337  2337
  105      9608 1 T   .101 1.518 127.8                          18552337  2337
  105     4240158          3.988       1.05                     400.400.  400.                                 1   1
  106       107 1     .033  .673 72.57                          25982598  2598
  106       108 1     .019  .389  42.1                          25982598  2598
  106       13951          1.962       1.05                     560.644.  672.                                 1   1
  106       14153          3.042       1.05                     560.672.  784.                                 1   1
  106       14255           2.93       1.05                     560.716.  716.                                 1   1
  106      9626 1     .012  .193 29.69                          24732598  2598
  107       11052          2.141       1.05                     600.720.  840.                                 1   1
  107       17954           2.15       1.05                     600.720.  840.                                 1   1
  107     4240756          2.142       1.05                     600.720.  840.                                 1   1
  107     4240858          2.114       1.05                     600.720.  840.                                 1   1
  108     4243111          2.327       1.05                     600.660.  684.                                 1   1
  108     4243212            2.3       1.05                     600.660.  684.                                 1   1
  108     4243313           2.27       1.05                     600.720.  840.                                 1   1
  108     4243414          2.288       1.05                     600.720.  840.                                 1   1
  112       895 1     .001  .001       1.05                     99999999  9999                                 1   1
  113       895 2     .001  .001       1.05                     99999999  9999                                 1   1
  114       895 1     .001  .001       1.05                     99999999  9999                                 1   1
  115      6609 1     .263  4.25  659.                          29103668  3668
  116       172 4D    .125  .722  .207                          145.145.  145.
  116       173 4     .625 3.608 1.003                          153.193.  193.
  117      4353 1     .131 2.346 348.3                          28023403  3403
  117      4353 2     .132  2.34 348.3                          28023403  3403
  119       118 4         15.049         1.                     999.999.  999.                                 1   1
  120       12151          -.522      1.0151.009 1.11        120560.717.10717.                                 1   1
  120       126 1       .6  5.95  92.8                          776.977.  977.
  120       126 2     .606  6.02  93.8                          776.977.  977.
  120       164 2     .031 7.624       .957                     150.160.  160.                                 1   1
  120       697 1     .394  4.39 74.85                          853.1075  1075
  120     42000 1          7.754       .957                     150.160.  160.                                 1   1
  120     42002 3          8.027       .957                     150.161.  161.                                 1   1
  120     42004 4            7.2       .957                     150.150.  150.                                 1   1
  120     42006 5           4.54       .957                     225.270.  315.                                 1   1
  120     42008 6          4.556       .957                     225.270.  315.                                 1   1
  122      6609 1     .079 1.214 103.2                          18552337  2337
  122     41522 1         1.8016       1.05                     750.750.  750.                                 1   1
  122     41524 2         1.7995       1.05                     750.750.  750.                                 1   1
  122     41526 3         1.2804       1.05                     750.900.  1050                                 1   1
  123       120 1 T   .359 3.945  66.7                          853.1075  1075
  123       12451          -.528      .9896  .95 1.11        123560.717.17717.                                 1   1
  123       162 1          5.563      1.004                     149.176.  176.                                 1   1
  123       17654          -.413      .9896  .95 1.11        123560.728.17728.                                 1   1
  123     41504 2            5.6      1.004                     149.176.  176.                                 1   1
  123     41505 3         6.0166      1.004                     149.176.  181.                                 1   1
  123     41506 4         5.6033      1.004                     149.176.  181.                                 1   1
  123     41507 5           5.63      1.004                     149.194.  194.                                 1   1
  125       112 1     .308 3.958 444.8                          12992252  2252
  126        86 1     .109 1.826  51.2                          17072150  2150
  126        86 2     .109 1.824  51.2                          17072150  2150
  126       123 1     .252 2.761  46.5                          853.1075  1075
  126       442 1     .116 1.132  17.7                          776.977.  977.
  129       442 1 T   .067   .66  10.1                          776.977.  977.
  129     41660 1          2.436         1.                     500.590.  615.                                 1   1
  129     41662 2          2.339         1.                     500.590.  615.                                 1   1
  130       113 2     .308 3.958 444.8                          12992252  2252
  131        22 1          3.693         1.                     378.378.  378.                                 1   1
  131      3012 1     .038  .427 6.673                          853.1075  1075
  131     4202211          2.686         1.                     400.480.  560.                                 1   1
  131     4202413          2.526         1.                     400.480.  560.                                 1   1
  134        12 1            .89       .999                     11801180  1180                                 1   1
  134        13 1           5.34       .999                     99999999  9999                                 1   1
  134       120 1      .56  6.16 105.3                          853.1075  1075
  134       120 2      .55  6.13 107.7                          853.1075  1075
  134      3012 1     .071  .755 12.92                          853.1075  1075
  134      3012 2     .071  .755 12.79                          853.1075  1075
  136        16 1            .96         1.                     12801280  1280                                 1   1
  136        17 1           7.68         1.                     99999999  9999                                 1   1
  136       120 1 T    .44   4.3  66.6                          776.977.  977.
  136       120 2 T    .44  4.33  66.6                          776.977.  977.
  136       131 1     .358 3.383 52.96                          776.956.  956.
  136       138 1      .65  6.46 100.8                          776.977.  977.
  136       367 1 T    .22  2.18  33.4                          776.977.  977.
  136       367 2 T    .18  1.79 34.29                          11321132  1132
  136      4360 1     .456 4.944 83.45                          853.1075  853.
  138       331 1    .42234.0862 73.67                          11591159  1159
  138      9013 1     .325 3.207 58.69                          11231383  1383
...
(Flexibilizado para convergencia
  394     4515814     .369  20.6      .9904   .9  1.1      -9005 60. 60.33 70.                                 1   1
  395      1505 3           7.43         1.                     133.133.  133.                                 1   1
  396       134 1 T    .32 3.509  59.2                          853.1075  1075
  396       216 1     .128  1.42  23.8                          853.1075  1075
  396       305 1            2.2      1.025                     450.450.  450.                                 1   1
  396      9037 1            8.8      1.025                     450.450.  450.                                 1   1
  397       393 4           7.38         1.                     100.100.  100.                                 1   1
  398      4013 3           5.03      .9835  .95   1.       -399150.202.32202.                                 1   1
  398      4014 4           4.42      .9839  .95   1.       -399150.202.32202.                                 1   1
  398      4015 5           5.05         1.                     150.165.  165.                                 1   1
  398      7784 1     .036  .367 6.183                          10761076  1076
  399      4013 3            .03         1.                     150.165.  165.                                 1   1
  399      4014 4            .36         1.                     150.183.  210.                                 1   1
  399      4015 5          -1.05      1.025                     150.165.  165.                                 1   1
  399      4382 1 T 20.47335.324 8.795                           73. 73.   73.
  399     46887 1     .001  .001                                99999999  9999
  409      3396 1   .097664.47022.2322                          99999999  9999
  410       411 1      .18  7.25      .9941 .8371.076       -411150.150.17180.                                 1   1
  410       411 2      .34 10.92      .9424 .8371.076       -411100.100.17120.                                 1   1
  410       411 3      .19  7.47      .9941 .8371.076       -411150.150.17165.                                 1   1
  410       411 4      .17  6.98      .9941 .8371.076       -411150.150.17180.                                 1   1
  410       421 1    .28511.5085  4.93                          573.598.  598.
  410       421 2    .28511.5085  4.93                          573.598.  598.
  410       431 1     .1841.0726   3.6                          324.445.  445.
  410       431 2     .1841.0726   3.6                          324.445.  445.
  410       590 2 T  .30322.2023  8.01                          383.530.  530.
  410       590 3 T  .30322.2023  8.01                          383.498.  498.
  410       590 4 T  .30322.2023  8.09                          383.498.  498.
  410       590 5 T  .30322.2023  8.09                          383.530.  530.
  410     47386 1D    .135  .789  2.65                          324.445.  445.
  412       410 1     .833 4.694 15.54                          325.447.  447.
  412     41888 1      1.5 42.08         1.                     99999999  9999                                 1   1
  412     41889 2      1.5 42.08         1.                     99999999  9999                                 1   1
  413      3438 1D    .007  .086 5.562                          15241524  1524
  413      3438 2D    .007  .086 5.562                          15241524  1524
  413     41916 1          7.355      .9916 .8431.044      -9107120.160.33180.                                 1   1
  413     41918 2          7.355      .9918 .8431.044     -41915120.160.33180.                                 1   1
  414       415 1    .0846  3.97      .9784 .894 1.21       -415400.457.25457.                                 1   1
  414       415 2    .0838  3.94      .9784 .894 1.21       -415400.480.25480.                                 1   1
  414       415 3    .0838  3.94      .9784 .894 1.21       -415400.480.25480.                                 1   1
  414       581 1    .10281.2749 82.53                          15241524  1524
  414       608 1    .0234 .2902 18.78                          15241524  1524
  414      7734 1     .245 2.954193.94                          15241524  1524
  415     45858 1    .14111.1775   .09                          352.352.  352.
  415     45859 2    .14111.1775   .09                          352.352.  352.
  416       480 1     .158 1.069 4.114                          685.805.  805.
  416       480 2     .158 1.069 4.114                          685.805.  805.
  416     41897 4D   -.017 2.993      .9703 .8751.075       -418225.270.17315.                                 1   1
  416     41899 2     .011 5.741      .9813 .8751.075       -417225.270.17315.                                 1   1
  416     41901 3D    .012 5.759         1. .8751.075       -417225.270.17315.                                 1   1
  416     45697 6     .135 4.897      .9705 .8751.062       -418225.270.16225.                                 1   1
  417     41899 2     .067 -.715         1.                     225.270.  315.                                 1   1
  417     41901 3     .067 -.741         1.                     225.270.  315.                                 1   1
  418     41897 4D    .117 1.849         1.                     225.270.  315.                                 1   1
  418     45697 6    -.041   -.1         1.                     225.270.  225.                                 1   1
  420        82 1 T   .125  1.16  21.6                          11841392  1392
  420       471 1 T   .077  .741  14.2                          11841392  1392
  420     44411 2     .034 2.976      .9869   .9  1.1       -432400.480.17560.                                 1   1
  420     44412 3      .05 2.974      .9869   .9  1.1       -432400.480.17560.                                 1   1
  421       422 1      .18  7.21      .9975 .8371.076       -422150.150.17180.                                 1   1
  421       422 2      .18  7.21      .9975 .8371.076       -422150.150.17180.                                 1   1
  421       422 3      .18   7.3      .9975 .8371.076       -422150.150.17180.                                 1   1
  421       422 4      .19  7.54      .9975 .8371.076       -422150.150.17180.                                 1   1
  423     41858 7     .014 6.405         1.                     250.300.  350.                                 1   1
  423     41860 8     .015 6.399         1.                     250.300.  350.                                 1   1
  424     41858 7     .077-1.102      .9872   .9  1.1        424250.300.33350.                                 1   1
  425       427 1     .037  .398 70.78                          400.400.  470.
  426       427 2     .037  .398 70.78                          400.400.  470.
  427       428 1D   .1937  7.65      1.013  .88 1.12       -428250.264.17264.                                 1   1
  427       428 2    .1932  7.63         1.  .88 1.12       -428250.264.17264.                                 1   1
  427     41649 3    .4546 20.91         1.                      90.123.  123.                                 1   1
  427     41650 4    .4546 20.91         1.                      90.123.  123.                                 1   1
  427     41651 5    .4278 20.52         1.                      90.135.  135.                                 1   1
  427     4814911     .105 4.887         1. .8751.062       -428225.270.16315.                                 1   1
  428     4814911    -.011 -.112         1.                     225.270.  315.                                 1   1
  429     41649 3    .0313  1.44      .9856  .88 1.12        429 45. 61.33 61.                                 1   1
  430     41860 8     .075-1.108      .9872   .9  1.1        430250.300.33350.                                 1   1
  431       425 1    .0749 .4362  1.42                          324.445.  445.
  431       426 2    .0749 .4362  1.42                          324.445.  445.
  431     41913 4           -.21         1.                     500.550.  550.                                 1   1
  431     47387 1D    .049  .284   .95                          324.445.  445.
  432     12016 1    .4635 1.493   .57                          231.239.  245.
  432     17610 1    .2344 .9321   .42                          231.239.  239.
  432     22016 2    .4635 1.493   .57                          231.239.  245.
  432     27610 2    .2344 .9321   .42                          231.239.  239.
  432     44411 2     .023 -.038         1.                     400.480.  560.                                 1   1
  432     44412 3     .006 -.041         1.                     400.480.  560.                                 1   1
  435       126 1      .01   .13  3.59                          17931793  1793
  435       126 2      .01   .13  3.59                          17931793  1793
  435       438 1      .05   .31 162.4                          400.400.  451.
  435       438 2      .05   .31 162.4                          400.400.  451.
  435     41760 1     .123 5.408      .9651 .8731.127       -437400.480.21560.                                 1   1
  435     41762 2     .139  6.12      .9679 .8731.127       -437400.478.21478.                                 1   1
  435     41764 3     .127 5.602      .9788 .8731.127       -436400.478.21478.                                 1   1
  435     41766 4     .127 5.575      .9789 .8731.127       -436400.478.21478.                                 1   1
  435     41896 5     .124 5.419      .9671 .8731.127       -437400.480.21480.                                 1   1
  436     41894 3     .001  .001                                99999999  9999
  436     41895 4     .001  .001                                99999999  9999
  437       436 1D    .001  .001                                99999999  9999
  437     41892 1     .001  .001                                99999999  9999
  437     41893 2     .001  .001                                99999999  9999
  437     41896 5     .001  .001                                99999999  9999
  438       441 4     .089  5.09      .9276 .785 1.04       -441400.480.32480.                                 1   1
  438       441 5     .063 5.617      .9834 .8741.128       -441400.480.21560.                                 1   1
  438       441 6     .089  5.09      .9834 .785 1.04       -441400.480.32480.                                 1   1
  438      7740 3    -.007 2.578       .984  .84 1.16      -7741135.162.17189.                                 1   1
  438     41644 1     .057 2.684         1.                     135.162.  162.                                 1   1
  438     41645 2     .057 2.684         1.                     135.162.  162.                                 1   1
  439       126 1    .0366 .5575 15.37                          23902390  2390
  439       126 2    .0366 .5575 15.37                          23902390  2390
  439       495 1    .0073 .1083  3.18                          17931793  1793
  439       495 2    .0073 .1083  3.18                          17931793  1793
  439     41776 1      .13  5.91      .9676  .86 1.14       -444400.480.21480.                                 1   1
  439     41778 2      .13  5.84      .9676  .86 1.14       -444400.480.21480.                                 1   1
  439     41780 3      .13   5.8      .9676  .86 1.14       -444400.480.21480.                                 1   1
  439     41913 4      .04  1.85         1.                     500.550.  550.                                 1   1
  440     41644 1     .76235.792      .9878 .838 1.16        440 67. 81.33 81.                                 1   1
  441      3441 1     .001  .001                                99999999  9999
  442     41754 1      .13 5.701      .9446 .785 1.14       -443400.478.21478.                                 1   1
  442     41756 2     .128  5.62      .9446 .785 1.14       -443400.478.21478.                                 1   1
  442     41758 3     .128  5.62      .9446 .785 1.14       -443400.478.21478.                                 1   1
  443     41754 1    -.009 -.388         1.                     400.478.  478.                                 1   1
  443     41756 2    -.008 -.333         1.                     400.478.  478.                                 1   1
  443     41758 3    -.008 -.333         1.                     400.478.  478.                                 1   1
  444     41776 1     -.01  -.49         1.                     400.480.  480.                                 1   1
  444     41778 2     -.01  -.49         1.                     400.480.  480.                                 1   1
  444     41780 3     -.01  -.49         1.                     400.480.  480.                                 1   1
  445       296 1          17.34         1.                      63. 63.   63.                                 1   1
  445      3461 1     .001  .001                                99999999  9999
  445     41834 3    -.013 -.594         1.                     400.480.  560.                                 1   1
  445     41836 4    -.014 -.594         1.                     400.480.  560.                                 1   1
  446       447 1     .236  8.26      .9692 .8371.076       -447150.180.16180.                                 1   1
  446       447 2     .236  8.26      .9692 .8371.076       -447150.180.16180.                                 1   1
  446       447 3     .236  8.26      .9692 .8371.076       -447150.150.16180.                                 1   1
  446       451 1    .0408 .2684   .99                          478.574.  574.
  448       161 3     .051  .336  1.23                          686.797.  797.
  448       446 1    .0133 .0872   .32                          478.478.  478.
  448       454 1    .51013.3487 12.31                          637.637.  637.
  449       127 1      .02   .16 2.661                          912.1103  1103
  449       128 2      .02   .16 2.661                          912.1103  1103
  449       442 1     .087  .919   18.                          11951195  1195
  449       448 1     .034 1.568         1.                     500.550.  550.                                 1   1
  449       448 2     .036 1.552         1.                     500.550.  550.                                 1   1
  449       594 1    .0462 .4023  7.33                          896.956.  956.
  449       594 2    .0462 .4023  7.33                          896.956.  956.
  449     41834 3     .134 6.316      .9775 .8741.128       -445400.480.21560.                                 1   1
  449     41836 4     .143 6.283      .9775 .8741.128       -445400.480.21560.                                 1   1
  451       161 1    .0173 .1141   .42                          478.574.  574.
  451      3446 1     .001  .001                                99999999  9999
  452      3045 1      .96  2.56   .66                          127.127.  127.
  452      3045 2      .96  2.56   .66                          127.127.  127.
...